STAAD SPACE
START JOB INFORMATION
ENGINEER DATE 01-Feb-24
END JOB INFORMATION
INPUT WIDTH 79
UNIT METER KN
JOINT COORDINATES
1 0 0 0; 2 5 0 0; 3 10 0 0; 4 15 0 0; 5 19.5 0 0; 6 24.5 0 0; 7 29.5 0 0;
8 34.5 0 0; 9 0 0 4; 10 5 0 4; 11 10 0 4; 12 15 0 4; 13 19.5 0 4; 14 24.5 0 4;
15 29.5 0 4; 16 34.5 0 4; 17 0 0 8; 18 5 0 8; 19 10 0 8; 20 15 0 8;
21 19.5 0 8; 22 24.5 0 8; 23 29.5 0 8; 24 34.5 0 8; 25 0 0 14.5; 26 5 0 14.5;
27 10 0 14.5; 28 15 0 14.5; 29 19.5 0 14.5; 30 24.5 0 14.5; 31 29.5 0 14.5;
32 34.5 0 14.5; 33 0 0 18.5; 34 5 0 18.5; 35 10 0 18.5; 36 15 0 18.5;
37 19.5 0 18.5; 38 24.5 0 18.5; 39 29.5 0 18.5; 40 34.5 0 18.5; 41 0 0 22.5;
42 5 0 22.5; 43 10 0 22.5; 44 15 0 22.5; 45 19.5 0 22.5; 46 24.5 0 22.5;
47 29.5 0 22.5; 48 34.5 0 22.5; 49 12 0 9.765; 50 15 0 9.5; 51 19.5 0 9.5;
52 22.5 0 9.765; 53 12 0 12.735; 54 15 0 13; 55 19.5 0 13; 56 22.5 0 12.735;
57 0 0 9.765; 58 34.5 0 9.765; 59 0 0 12.735; 60 34.5 0 12.735; 1141 0 -2.7 0;
1142 5 -2.7 0; 1143 10 -2.7 0; 1144 15 -2.7 0; 1145 19.5 -2.7 0;
1146 24.5 -2.7 0; 1147 29.5 -2.7 0; 1148 34.5 -2.7 0; 1149 0 -2.7 4;
1150 5 -2.7 4; 1151 10 -2.7 4; 1152 15 -2.7 4; 1153 19.5 -2.7 4;
1154 24.5 -2.7 4; 1155 29.5 -2.7 4; 1156 34.5 -2.7 4; 1157 0 -2.7 8;
1158 5 -2.7 8; 1159 10 -2.7 8; 1160 15 -2.7 8; 1161 19.5 -2.7 8;
1162 24.5 -2.7 8; 1163 29.5 -2.7 8; 1164 34.5 -2.7 8; 1165 0 -2.7 14.5;
1166 5 -2.7 14.5; 1167 10 -2.7 14.5; 1168 15 -2.7 14.5; 1169 19.5 -2.7 14.5;
1170 24.5 -2.7 14.5; 1171 29.5 -2.7 14.5; 1172 34.5 -2.7 14.5;
1173 0 -2.7 18.5; 1174 5 -2.7 18.5; 1175 10 -2.7 18.5; 1176 15 -2.7 18.5;
# ... 365 like lines cut
MEMBER INCIDENCES
1 1 2; 2 2 3; 3 3 4; 4 4 5; 5 5 6; 6 6 7; 7 7 8; 8 9 10; 9 10 11; 10 11 12;
12 13 14; 13 14 15; 14 15 16; 15 17 18; 16 18 19; 17 19 20; 18 20 21; 19 21 22;
20 22 23; 21 23 24; 22 25 26; 23 26 27; 24 27 28; 25 28 29; 26 29 30; 27 30 31;
28 31 32; 29 33 34; 30 34 35; 31 35 36; 33 37 38; 34 38 39; 35 39 40; 36 41 42;
37 42 43; 38 43 44; 39 44 45; 40 45 46; 41 46 47; 42 47 48; 47 1 9; 48 9 17;
50 25 33; 51 33 41; 52 2 10; 53 10 18; 54 18 2426; 55 26 34; 56 34 42; 57 3 11;
58 11 19; 59 19 27; 60 27 35; 61 35 43; 62 4 12; 63 12 20; 64 20 50; 66 54 28;
67 28 36; 68 36 44; 69 5 13; 70 13 21; 71 21 51; 73 55 29; 74 29 37; 75 37 45;
76 6 14; 77 14 22; 78 22 30; 79 30 38; 80 38 46; 81 7 15; 82 15 23; 83 23 2428;
84 31 39; 85 39 47; 86 8 16; 87 16 24; 89 32 40; 90 40 48; 91 49 53; 92 52 56;
93 56 55; 94 55 54; 95 53 54; 96 49 50; 97 52 51; 98 51 50; 99 25 59;
100 17 57; 101 24 58; 102 32 60; 2875 1 1141; 2876 2 1142; 2877 3 1143;
2878 4 1144; 2879 5 1145; 2880 6 1146; 2881 7 1147; 2882 8 1148; 2883 9 1149;
2884 10 1150; 2885 11 1151; 2886 12 1152; 2887 13 1153; 2888 14 1154;
2889 15 1155; 2890 16 1156; 2891 17 1157; 2892 18 1158; 2893 19 1159;
2894 20 1160; 2895 21 1161; 2896 22 1162; 2897 23 1163; 2898 24 1164;
2899 25 1165; 2900 26 1166; 2901 27 1167; 2902 28 1168; 2903 29 1169;
2904 30 1170; 2905 31 1171; 2906 32 1172; 2907 33 1173; 2908 34 1174;
2909 35 1175; 2910 36 1176; 2911 37 1177; 2912 38 1178; 2913 39 1179;
2914 40 1180; 2915 41 1181; 2916 42 1182; 2917 43 1183; 2918 44 1184;
# ... 567 like lines cut
ELEMENT INCIDENCES SHELL
2931 1 2 10 9; 2932 2 3 11 10; 2933 3 4 12 11; 2935 5 6 14 13; 2936 6 7 15 14;
2938 9 10 18 17; 2939 10 11 19 18; 2940 11 12 20 19; 2942 13 14 22 21;
2943 14 15 23 22; 2944 15 16 24 23; 2945 18 19 27 26; 2946 20 21 51 50;
2947 22 23 31 30; 2948 25 26 34 33; 2949 26 27 35 34; 2950 27 28 36 35;
2951 28 29 55 54; 2953 29 30 38 37; 2954 30 31 39 38; 2955 31 32 40 39;
2956 33 34 42 41; 2957 34 35 43 42; 2958 35 36 44 43; 2959 37 38 46 45;
2960 38 39 47 46; 2961 39 40 48 47; 2962 20 50 19; 2963 19 50 49;
2964 21 51 22; 2965 22 51 52; 2966 53 28 27; 2967 28 54 53; 2968 55 29 30;
2969 30 56 55; 2970 22 52 56 30; 2971 19 49 53 27; 2972 49 50 54 53;
2973 50 51 55 54; 2974 51 52 56 55; 2975 18 17 25 26; 2976 23 24 32 31;
3127 1197 1198 1206 1205; 3128 1198 1199 1207 1206; 3129 1199 1200 1208 1207;
3130 1201 1202 1210 1209; 3131 1202 1203 1211 1210; 3132 1203 1204 1212 1211;
3133 1205 1206 1214 1213; 3134 1206 1207 1215 1214; 3135 1207 1208 1216 1215;
3136 1209 1210 1218 1217; 3137 1210 1211 1219 1218; 3138 1211 1212 1220 1219;
3140 1216 1217 1247 1246; 3142 1221 1222 1230 1229; 3143 1222 1223 1231 1230;
3144 1223 1224 1232 1231; 3145 1224 1225 1251 1250; 3146 1225 1226 1234 1233;
3147 1226 1227 1235 1234; 3148 1227 1228 1236 1235; 3149 1229 1230 1238 1237;
3150 1230 1231 1239 1238; 3151 1231 1232 1240 1239; 3152 1233 1234 1242 1241;
3153 1234 1235 1243 1242; 3154 1235 1236 1244 1243; 3155 1216 1246 1215;
3156 1215 1246 1245; 3157 1217 1247 1218; 3158 1218 1247 1248;
# ... 308 like lines cut
ELEMENT PROPERTY
6963 TO 7030 7035 TO 7110 7131 TO 7138 7153 TO 7156 7191 TO 7238 THICKNESS 0.2
2931 TO 2933 2935 2936 2938 TO 2940 2942 TO 2951 2953 TO 2976 3127 TO 3138 -
3140 3142 TO 3164 3173 TO 3176 3179 3180 3189 3190 3379 TO 3381 -
3383 TO 3388 3390 TO 3402 3404 TO 3411 3413 TO 3423 3604 TO 3644 -
6165 TO 6738 6917 TO 6957 7157 7188 TO 7190 7261 TO 7264 THICKNESS 0.15
DEFINE MATERIAL START
ISOTROPIC CONCRETE
E 2.17185e+07
POISSON 0.17
DENSITY 23.5616
ALPHA 1e-05
DAMP 0.05
TYPE CONCRETE
STRENGTH FCU 27579
END DEFINE MATERIAL
MEMBER PROPERTY AMERICAN
2875 TO 2923 2926 2927 2930 2977 TO 3025 3028 3029 3032 3197 TO 3245 3248 -
3249 3252 3424 TO 3472 3475 3476 3479 3645 TO 3693 3696 3697 3700 -
3825 TO 3873 3876 3877 3880 4005 TO 4053 4056 4057 4060 4185 TO 4233 4236 -
4237 4240 7265 TO 7272 PRIS YD 0.9 ZD 0.9
4365 TO 4413 4416 4417 4420 4545 TO 4593 4596 4597 4600 4725 TO 4773 4776 -
4777 4780 4905 TO 4953 4956 4957 4960 5085 TO 5133 5136 5137 5140 -
5265 TO 5313 5316 5317 5320 PRIS YD 0.75 ZD 0.75
5445 TO 5493 5496 5497 5500 5625 TO 5673 5676 5677 5680 5805 TO 5853 5856 -
5857 5860 5985 TO 6033 6036 6037 6040 6739 TO 6787 6790 6791 6794 -
7115 TO 7122 PRIS YD 0.65 ZD 0.65
1 TO 10 12 TO 31 33 TO 42 47 48 50 TO 64 66 TO 71 73 TO 87 89 TO 102 3037 -
3038 TO 3046 3048 TO 3067 3069 TO 3126 3167 3170 3171 3177 3178 3181 TO 3188 -
3191 3192 3195 3196 3265 TO 3274 3276 TO 3295 3297 TO 3354 3360 -
3365 TO 3370 3372 TO 3374 3377 3378 3492 TO 3579 3585 3590 TO 3595 -
3597 TO 3599 3602 3603 3713 TO 3800 3806 3811 TO 3816 3818 TO 3820 3823 -
3824 3893 TO 3980 3986 3991 TO 3996 3998 TO 4000 4003 4004 4073 TO 4160 -
4166 4171 TO 4176 4178 TO 4180 4183 4184 4253 TO 4340 4346 4351 TO 4356 -
4358 TO 4360 4363 4364 4433 TO 4520 4526 4531 TO 4536 4538 TO 4540 4543 -
4544 4613 TO 4700 4706 4711 TO 4716 4718 TO 4720 4723 4724 4793 TO 4880 -
4886 4891 TO 4896 4898 TO 4900 4903 4904 4973 TO 5060 5066 5071 TO 5076 -
5078 TO 5080 5083 5084 5153 TO 5240 5246 5251 TO 5256 5258 TO 5260 5263 -
5264 5333 TO 5420 5426 5431 TO 5436 5438 TO 5440 5443 5444 5513 TO 5600 -
5606 5611 TO 5616 5618 TO 5620 5623 5624 5693 TO 5780 5786 5791 TO 5796 -
5798 TO 5800 5803 5804 5873 TO 5960 5966 5971 TO 5976 5978 TO 5980 5983 -
5984 6053 TO 6140 6146 6151 TO 6156 6158 TO 6160 6163 6164 6807 TO 6894 -
6900 6903 TO 6908 6910 TO 6912 6915 6916 6958 TO 6962 7031 TO 7034 -
7111 TO 7114 7123 TO 7130 7139 7140 7158 7159 7164 TO 7167 7247 TO 7259 -
7260 PRIS YD 0.6 ZD 0.4
MEMBER PROPERTY AMERICAN
7141 TO 7144 7160 TO 7163 7168 TO 7175 7239 TO 7246 PRIS YD 0.2 ZD 0.2
CONSTANTS
MATERIAL CONCRETE ALL
SUPPORTS
1141 TO 1189 1192 1193 1196 2489 TO 2496 FIXED
DEFINE WIND LOAD
TYPE 1 WIND 1
INT 0.96 0.96 1.411 1.606 1.815 1.882 1.895 1.915 HEIG 10 20 30 40 50 60 62 -
65
EXP 0.5 JOINT 1197 TO 2420
DEFINE 1893 LOAD
ZONE 0.36 RF 5 I 1 SS 2 ST 1 DM 0.05
SELFWEIGHT 1 
LOAD 1 LOADTYPE Seismic-H  TITLE EQX
1893 LOAD X 1
LOAD 2 LOADTYPE Seismic-H  TITLE EQ-X
1893 LOAD X -1
LOAD 3 LOADTYPE Seismic-H  TITLE EQZ
1893 LOAD Z 1
LOAD 4 LOADTYPE Seismic-H  TITLE EQ-Z
1893 LOAD Z -1
LOAD 5 LOADTYPE Wind  TITLE WLX
WIND LOAD X 1 TYPE 1 YR 2.7 57.95
LOAD 6 LOADTYPE Wind  TITLE WL-X
WIND LOAD X -1 TYPE 1 YR 2.7 57.95
LOAD 7 LOADTYPE Wind  TITLE WLZ
WIND LOAD Z 1 TYPE 1 YR 2.7 57.95
LOAD 8 LOADTYPE Wind  TITLE WL-Z
WIND LOAD Z -1 TYPE 1 YR 2.7 57.95
LOAD 10 LOADTYPE Live  TITLE LIVE LOAD
ELEMENT LOAD
3127 TO 3132 3135 3136 3144 3146 3149 TO 3154 3379 TO 3381 3383 TO 3385 3388 -
3390 3401 3404 3409 TO 3411 3413 TO 3415 3604 TO 3609 3612 3613 3624 3626 -
3631 TO 3636 6165 TO 6170 6173 6174 6185 6187 6192 TO 6197 6206 TO 6211 -
6214 6215 6226 6228 6233 TO 6238 6247 TO 6252 6255 6256 6267 6269 -
6274 TO 6279 6288 TO 6293 6296 6297 6308 6310 6315 TO 6320 6329 TO 6334 -
6337 6338 6349 6351 6356 TO 6361 6370 TO 6375 6378 6379 6390 6392 -
6397 TO 6402 6411 TO 6416 6419 6420 6431 6433 6438 TO 6443 6452 TO 6457 -
6460 6461 6472 6474 6479 TO 6484 6493 TO 6498 6501 6502 6513 6515 -
6520 TO 6525 6534 TO 6539 6542 6543 6554 6556 6561 TO 6566 6575 TO 6580 -
6583 6584 6595 6597 6602 TO 6607 6616 TO 6621 6624 6625 6636 6638 -
6643 TO 6648 6657 TO 6662 6665 6666 6677 6679 6684 TO 6689 6698 TO 6703 -
6706 6707 6718 6720 6725 TO 6730 PR GY -2
2931 TO 2933 2935 2936 2938 TO 2940 2942 TO 2951 2953 TO 2976 3133 3134 3137 -
3138 3140 3142 3143 3145 3147 3148 3155 TO 3164 3173 TO 3176 3179 3180 3386 -
3387 3391 TO 3400 3402 3405 TO 3408 3416 TO 3423 3610 3611 3614 TO 3623 -
3625 3627 TO 3630 3637 TO 3644 6171 6172 6175 TO 6184 6186 6188 TO 6191 -
6198 TO 6205 6212 6213 6216 TO 6225 6227 6229 TO 6232 6239 TO 6246 6253 -
6254 6257 TO 6266 6268 6270 TO 6273 6280 TO 6287 6294 6295 6298 TO 6307 -
6309 6311 TO 6314 6321 TO 6328 6335 6336 6339 TO 6348 6350 6352 TO 6355 -
6362 TO 6369 6376 6377 6380 TO 6389 6391 6393 TO 6396 6403 TO 6410 6417 -
6418 6421 TO 6430 6432 6434 TO 6437 6444 TO 6451 6458 6459 6462 TO 6471 -
6473 6475 TO 6478 6485 TO 6492 6499 6500 6503 TO 6512 6514 6516 TO 6519 -
6526 TO 6533 6540 6541 6544 TO 6553 6555 6557 TO 6560 6567 TO 6574 6581 -
6582 6585 TO 6594 6596 6598 TO 6601 6608 TO 6615 6622 6623 6626 TO 6635 -
6637 6639 TO 6642 6649 TO 6656 6663 6664 6667 TO 6676 6678 6680 TO 6683 -
6690 TO 6697 6704 6705 6708 TO 6717 6719 6721 TO 6724 6731 TO 6737 -
6738 PR GY -3
FLOOR LOAD
YRANGE 0 57.975 FLOAD -3 XRANGE 15 19.5  ZRANGE 0 8  GY
YRANGE 0 57.975 FLOAD -3 XRANGE 15 19.5  ZRANGE 14.5 22.5  GY
LOAD 9 LOADTYPE Dead  TITLE DEAD LOAD
ELEMENT LOAD
2931 TO 2933 2935 2936 2938 TO 2940 2942 TO 2951 2953 TO 2976 3127 TO 3138 -
3140 3142 TO 3164 3173 TO 3176 3179 3180 3189 3190 3379 TO 3381 -
3383 TO 3388 3390 TO 3402 3404 TO 3411 3413 TO 3423 3604 TO 3644 -
6165 TO 6738 PR GY -1
6917 TO 6957 PR GY -0.5
MEMBER LOAD
6807 TO 6813 6840 TO 6850 6883 TO 6886 6891 TO 6894 7111 TO 7114 UNI GY -9.375
91 TO 98 3119 TO 3122 3191 3192 3195 3196 3347 TO 3350 3373 3374 3377 3378 -
3572 TO 3575 3598 3599 3602 3603 3793 TO 3796 3819 3820 3823 3824 -
3973 TO 3976 3999 4000 4003 4004 4153 TO 4156 4179 4180 4183 4184 -
4333 TO 4336 4359 4360 4363 4364 4513 TO 4516 4539 4540 4543 4544 -
4693 TO 4696 4719 4720 4723 4724 4873 TO 4876 4899 4900 4903 4904 -
5053 TO 5056 5079 5080 5083 5084 5233 TO 5236 5259 5260 5263 5264 -
5413 TO 5416 5439 5440 5443 5444 5593 TO 5596 5619 5620 5623 5624 -
5773 TO 5776 5799 5800 5803 5804 5953 TO 5956 5979 5980 5983 5984 -
6133 TO 6136 6159 6160 6163 6164 6887 TO 6890 6911 6912 6915 -
6916 UNI GY -1.5
3037 TO 3043 3053 3055 3060 3062 3072 TO 3082 3093 3094 3097 TO 3100 3103 -
3104 3115 TO 3118 3123 TO 3126 3197 TO 3205 3212 3213 3220 3221 3228 3229 -
3236 TO 3244 3265 TO 3271 3281 3283 3288 3290 3300 TO 3310 3321 3322 3325 -
3326 TO 3328 3331 3332 3343 TO 3346 3351 TO 3354 3424 TO 3432 3439 3440 3447 -
3448 3455 3456 3463 TO 3471 3492 TO 3498 3507 3509 3514 3516 3525 TO 3535 -
3546 3547 3550 TO 3553 3556 3557 3568 TO 3571 3576 TO 3579 3645 TO 3653 -
3660 3661 3668 3669 3676 3677 3684 TO 3692 3713 TO 3719 3728 3730 3735 3737 -
3746 TO 3756 3767 3768 3771 TO 3774 3777 3778 3789 TO 3792 3797 TO 3800 -
3825 TO 3833 3840 3841 3848 3849 3856 3857 3864 TO 3872 3893 TO 3899 3908 -
3910 3915 3917 3926 TO 3936 3947 3948 3951 TO 3954 3957 3958 3969 TO 3972 -
3977 TO 3980 4005 TO 4013 4020 4021 4028 4029 4036 4037 4044 TO 4052 4073 -
4074 TO 4079 4088 4090 4095 4097 4106 TO 4116 4127 4128 4131 TO 4134 4137 -
4138 4149 TO 4152 4157 TO 4160 4185 TO 4193 4200 4201 4208 4209 4216 4217 -
4224 TO 4232 4253 TO 4259 4268 4270 4275 4277 4286 TO 4296 4307 4308 4311 -
4312 TO 4314 4317 4318 4329 TO 4332 4337 TO 4340 4365 TO 4373 4380 4381 4388 -
4389 4396 4397 4404 TO 4412 4433 TO 4439 4448 4450 4455 4457 4466 TO 4476 -
4487 4488 4491 TO 4494 4497 4498 4509 TO 4512 4517 TO 4520 4545 TO 4553 -
4560 4561 4568 4569 4576 4577 4584 TO 4592 UNI GY -16.56
4613 TO 4619 4628 4630 4635 4637 4646 TO 4656 4667 4668 4671 TO 4674 4677 -
4678 4689 TO 4692 4697 TO 4700 4725 TO 4733 4740 4741 4748 4749 4756 4757 -
4764 TO 4772 4793 TO 4799 4808 4810 4815 4817 4826 TO 4836 4847 4848 4851 -
4852 TO 4854 4857 4858 4869 TO 4872 4877 TO 4880 4905 TO 4913 4920 4921 4928 -
4929 4936 4937 4944 TO 4952 4973 TO 4979 4988 4990 4995 4997 5006 TO 5016 -
5027 5028 5031 TO 5034 5037 5038 5049 TO 5052 5057 TO 5060 5085 TO 5093 -
5100 5101 5108 5109 5116 5117 5124 TO 5132 5153 TO 5159 5168 5170 5175 5177 -
5186 TO 5196 5207 5208 5211 TO 5214 5217 5218 5229 TO 5232 5237 TO 5240 -
5265 TO 5273 5280 5281 5288 5289 5296 5297 5304 TO 5312 5333 TO 5339 5348 -
5350 5355 5357 5366 TO 5376 5387 5388 5391 TO 5394 5397 5398 5409 TO 5412 -
5417 TO 5420 5445 TO 5453 5460 5461 5468 5469 5476 5477 5484 TO 5492 5513 -
5514 TO 5519 5528 5530 5535 5537 5546 TO 5556 5567 5568 5571 TO 5574 5577 -
5578 5589 TO 5592 5597 TO 5600 5625 TO 5633 5640 5641 5648 5649 5656 5657 -
5664 TO 5672 5693 TO 5699 5708 5710 5715 5717 5726 TO 5736 5747 5748 5751 -
5752 TO 5754 5757 5758 5769 TO 5772 5777 TO 5780 5805 TO 5813 5820 5821 5828 -
5829 5836 5837 5844 TO 5852 5873 TO 5879 5888 5890 5895 5897 5906 TO 5916 -
5927 5928 5931 TO 5934 5937 5938 5949 TO 5952 5957 TO 5960 5985 TO 5993 -
6000 6001 6008 6009 6016 6017 6024 TO 6032 UNI GY -16.56
6053 TO 6059 6068 6070 6075 6077 6086 TO 6096 6107 6108 6111 TO 6114 6117 -
6118 6129 TO 6132 6137 TO 6140 UNI GY -16.56
3044 TO 3046 3048 TO 3052 3056 TO 3059 3063 TO 3067 3069 TO 3071 -
3083 TO 3089 3091 3092 3105 3106 3108 TO 3114 3167 3171 3181 3185 3187 3272 -
3273 TO 3274 3276 TO 3280 3284 TO 3287 3291 TO 3295 3297 TO 3299 -
3311 TO 3317 3319 3320 3333 3334 3336 TO 3342 3365 3369 3499 TO 3506 3510 -
3511 TO 3513 3517 TO 3524 3536 TO 3542 3544 3545 3558 3559 3561 TO 3567 3590 -
3594 3720 TO 3727 3731 TO 3734 3738 TO 3745 3757 TO 3763 3765 3766 3779 -
3780 3782 TO 3788 3811 3815 3900 TO 3907 3911 TO 3914 3918 TO 3925 -
3937 TO 3943 3945 3946 3959 3960 3962 TO 3968 3991 3995 4080 TO 4087 4091 -
4092 TO 4094 4098 TO 4105 4117 TO 4123 4125 4126 4139 4140 4142 TO 4148 4171 -
4175 4260 TO 4267 4271 TO 4274 4278 TO 4285 4297 TO 4303 4305 4306 4319 -
4320 4322 TO 4328 4351 4355 4440 TO 4447 4451 TO 4454 4458 TO 4465 -
4477 TO 4483 4485 4486 4499 4500 4502 TO 4508 4531 4535 4620 TO 4627 4631 -
4632 TO 4634 4638 TO 4645 4657 TO 4663 4665 4666 4679 4680 4682 TO 4688 4711 -
4715 4800 TO 4807 4811 TO 4814 4818 TO 4825 4837 TO 4843 4845 4846 4859 -
4860 4862 TO 4868 4891 4895 4980 TO 4987 4991 TO 4994 4998 TO 5005 -
5017 TO 5023 5025 5026 5039 5040 5042 TO 5048 5071 5075 5160 TO 5167 5171 -
5172 TO 5174 5178 TO 5185 5197 TO 5203 5205 5206 5219 5220 5222 TO 5228 5251 -
5255 5340 5342 TO 5347 5351 TO 5354 5358 TO 5365 5377 TO -
5382  UNI GY -9.9375
5383 UNI GY -9.9375
5385 UNI GY -9.9375
5386 5399 5400 5402 TO 5408 5431 5435 5520 TO 5527 5531 TO 5534 5538 TO 5545 -
5557 TO 5563 5565 5566 5579 5580 5582 TO 5588 5611 5615 5700 TO 5707 5711 -
5712 TO 5714 5718 TO 5725 5737 TO 5743 5745 5746 5759 5760 5762 TO 5768 5791 -
5795 5880 TO 5887 5891 TO 5894 5898 TO 5905 5917 TO 5923 5925 5926 5939 -
5940 5942 TO 5948 5971 5975 6060 TO 6067 6071 TO 6074 6078 TO 6085 -
6097 TO 6103 6105 6106 6119 6120 6122 TO 6128 6151 6155 -
6962 UNI GY -9.9375
MEMBER LOAD
4 18 25 39 3040 3054 3061 3075 3268 3282 3289 3303 3495 3508 3515 3528 3716 -
3729 3736 3749 3896 3909 3916 3929 4076 4089 4096 4109 4256 4269 4276 4289 -
4436 4449 4456 4469 4616 4629 4636 4649 4796 4809 4816 4829 4976 4989 4996 -
5009 5156 5169 5176 5189 5336 5349 5356 5369 5516 5529 5536 5549 5696 5709 -
5716 5729 5876 5889 5896 5909 6056 6069 6076 6089 6810 6823 6830 -
6843 UNI GY -26.728
ELEMENT LOAD
7137 7138 PR GY -15
7157 7188 TO 7190 PR GY -10
SELFWEIGHT Y -1 
LOAD COMB 11 GENERATED INDIAN CODE GENRAL_STRUCTURES 1
9 1.5 10 1.5 
LOAD COMB 12 GENERATED INDIAN CODE GENRAL_STRUCTURES 2
9 1.2 10 1.2 5 1.2 
LOAD COMB 13 GENERATED INDIAN CODE GENRAL_STRUCTURES 3
9 1.2 10 1.2 6 1.2 
LOAD COMB 14 GENERATED INDIAN CODE GENRAL_STRUCTURES 4
9 1.2 10 1.2 7 1.2 
LOAD COMB 15 GENERATED INDIAN CODE GENRAL_STRUCTURES 5
9 1.2 10 1.2 8 1.2 
LOAD COMB 16 GENERATED INDIAN CODE GENRAL_STRUCTURES 6
9 1.2 10 1.2 5 -1.2 
LOAD COMB 17 GENERATED INDIAN CODE GENRAL_STRUCTURES 7
9 1.2 10 1.2 6 -1.2 
LOAD COMB 18 GENERATED INDIAN CODE GENRAL_STRUCTURES 8
9 1.2 10 1.2 7 -1.2 
LOAD COMB 19 GENERATED INDIAN CODE GENRAL_STRUCTURES 9
9 1.2 10 1.2 8 -1.2 
LOAD COMB 20 GENERATED INDIAN CODE GENRAL_STRUCTURES 10
9 1.2 10 1.2 1 1.2 
LOAD COMB 21 GENERATED INDIAN CODE GENRAL_STRUCTURES 11
9 1.2 10 1.2 2 1.2 
LOAD COMB 22 GENERATED INDIAN CODE GENRAL_STRUCTURES 12
9 1.2 10 1.2 3 1.2 
LOAD COMB 23 GENERATED INDIAN CODE GENRAL_STRUCTURES 13
9 1.2 10 1.2 4 1.2 
LOAD COMB 24 GENERATED INDIAN CODE GENRAL_STRUCTURES 14
9 1.2 10 1.2 1 -1.2 
LOAD COMB 25 GENERATED INDIAN CODE GENRAL_STRUCTURES 15
9 1.2 10 1.2 2 -1.2 
LOAD COMB 26 GENERATED INDIAN CODE GENRAL_STRUCTURES 16
9 1.2 10 1.2 3 -1.2 
LOAD COMB 27 GENERATED INDIAN CODE GENRAL_STRUCTURES 17
9 1.2 10 1.2 4 -1.2 
LOAD COMB 28 GENERATED INDIAN CODE GENRAL_STRUCTURES 18
9 1.5 5 1.5 
LOAD COMB 29 GENERATED INDIAN CODE GENRAL_STRUCTURES 19
9 1.5 6 1.5 
LOAD COMB 30 GENERATED INDIAN CODE GENRAL_STRUCTURES 20
9 1.5 7 1.5 
# ... 42 like lines cut
PERFORM ANALYSIS PRINT ALL
PERFORM ANALYSIS PRINT ALL
START CONCRETE DESIGN
CODE INDIAN
ENSH 1 MEMB 1 TO 10 12 TO 31 33 TO 42 47 48 50 TO 64 66 TO 71 73 TO 87 89 -
90 TO 102 3037 TO 3046 3048 TO 3067 3069 TO 3126 3167 3170 3171 3177 3178 -
3181 TO 3188 3191 3192 3195 3196 3265 TO 3274 3276 TO 3295 3297 TO 3354 -
3360 3365 TO 3370 3372 TO 3374 3377 3378 3492 TO 3579 3585 3590 TO 3595 -
3597 TO 3599 3602 3603 3713 TO 3800 3806 3811 TO 3816 3818 TO 3820 3823 -
3824 3893 TO 3980 3986 3991 TO 3996 3998 TO 4000 4003 4004 4073 TO 4160 -
4166 4171 TO 4176 4178 TO 4180 4183 4184 4253 TO 4340 4346 4351 TO 4356 -
4358 TO 4360 4363 4364 4433 TO 4520 4526 4531 TO 4536 4538 TO 4540 4543 -
4544 4613 TO 4700 4706 4711 TO 4716 4718 TO 4720 4723 4724 4793 TO 4880 -
4886 4891 TO 4896 4898 TO 4900 4903 4904 4973 TO 5060 5066 5071 TO 5076 -
5078 TO 5080 5083 5084 5153 TO 5240 5246 5251 TO 5256 5258 TO 5260 5263 -
5264 5333 TO 5420 5426 5431 TO 5436 5438 TO 5440 5443 5444 5513 TO 5600 -
5606 5611 TO 5616 5618 TO 5620 5623 5624 5693 TO 5780 5786 5791 TO 5796 -
5798 TO 5800 5803 5804 5873 TO 5960 5966 5971 TO 5976 5978 TO 5980 5983 -
5984 6053 TO 6140 6146 6151 TO 6156 6158 TO 6160 6163 6164 6807 TO 6894 -
6900 6903 TO 6908 6910 TO 6912 6915 6916 6958 TO 6962 7031 TO 7034 -
7111 TO 7114 7123 TO 7130 7139 7140 7158 7159 7164 TO 7167 7247 TO 7260
FC 30000 ALL
FYMAIN 500000 ALL
FYSEC 500000 ALL
MINMAIN 16 ALL
MINSEC 12 ALL
DESIGN BEAM 1 TO 10 12 TO 31 33 TO 42 47 48 50 TO 64 66 TO 71 73 TO 87 89 -
90 TO 102 3037 TO 3046 3048 TO 3067 3069 TO 3126 3167 3170 3171 3177 3178 -
3181 TO 3188 3191 3192 3195 3196 3265 TO 3274 3276 TO 3295 3297 TO 3354 -
3360 3365 TO 3370 3372 TO 3374 3377 3378 3492 TO 3579 3585 3590 TO 3595 -
3597 TO 3599 3602 3603 3713 TO 3800 3806 3811 TO 3816 3818 TO 3820 3823 -
3824 3893 TO 3980 3986 3991 TO 3996 3998 TO 4000 4003 4004 4073 TO 4160 -
4166 4171 TO 4176 4178 TO 4180 4183 4184 4253 TO 4340 4346 4351 TO 4356 -
4358 TO 4360 4363 4364 4433 TO 4520 4526 4531 TO 4536 4538 TO 4540 4543 -
4544 4613 TO 4700 4706 4711 TO 4716 4718 TO 4720 4723 4724 4793 TO 4880 -
4886 4891 TO 4896 4898 TO 4900 4903 4904 4973 TO 5060 5066 5071 TO 5076 -
5078 TO 5080 5083 5084 5153 TO 5240 5246 5251 TO 5256 5258 TO 5260 5263 -
5264 5333 TO 5420 5426 5431 TO 5436 5438 TO 5440 5443 5444 5513 TO 5600 -
5606 5611 TO 5616 5618 TO 5620 5623 5624 5693 TO 5780 5786 5791 TO 5796 -
5798 TO 5800 5803 5804 5873 TO 5960 5966 5971 TO 5976 5978 TO 5980 5983 -
5984 6053 TO 6140 6146 6151 TO 6156 6158 TO 6160 6163 6164 6807 TO 6894 -
6900 6903 TO 6908 6910 TO 6912 6915 6916 6958 TO 6962 7031 TO 7034 -
7111 TO 7114 7123 TO 7130 7139 7140 7158 7159 7164 TO 7167 7247 TO 7260
DESIGN COLUMN 2875 TO 2923 2926 2927 2930 2977 TO 3025 3028 3029 3032 3197 -
3198 TO 3245 3248 3249 3252 3424 TO 3472 3475 3476 3479 3645 TO 3693 3696 -
3697 3700 3825 TO 3873 3876 3877 3880 4005 TO 4053 4056 4057 4060 -
4185 TO 4233 4236 4237 4240 4365 TO 4413 4416 4417 4420 4545 TO 4593 4596 -
4597 4600 4725 TO 4773 4776 4777 4780 4905 TO 4953 4956 4957 4960 -
5085 TO 5133 5136 5137 5140 5265 TO 5313 5316 5317 5320 5445 TO 5493 5496 -
5497 5500 5625 TO 5673 5676 5677 5680 5805 TO 5853 5856 5857 5860 -
5985 TO 6033 6036 6037 6040 6739 TO 6787 6790 6791 6794 7115 TO 7122 7141 -
7142 TO 7144 7160 TO 7163 7168 TO 7175 7239 TO 7246 7265 TO 7272
DESIGN ELEMENT 2931 TO 2933 2935 2936 2938 TO 2940 2942 TO 2951 2953 TO 2976 -
3127 TO 3138 3140 3142 TO 3164 3173 TO 3176 3179 3180 3189 3190 -
3379 TO 3381 3383 TO 3388 3390 TO 3402 3404 TO 3411 3413 TO 3423 -
3604 TO 3644 6165 TO 6738 6917 TO 6957 6963 TO 7030 7035 TO 7110 -
7131 TO 7138 7153 TO 7157 7188 TO 7238 7261 TO 7264
CONCRETE TAKE
END CONCRETE DESIGN
PERFORM ANALYSIS PRINT ALL
FINISH
